CRYSTAL
PRIMVEC 1
     -2.8400940897       0.0000000000       2.8400940897
      0.0000000000       2.8400940897       2.8400940897
     -2.8400940897       2.8400940897       0.0000000000
PRIMCOORD 1
2 1
31       0.0000000000       0.0000000000       0.0000000000
33      -1.4200470448       1.4200470448       1.4200470448

