CRYSTAL
PRIMVEC 1
      4.1399640213       0.0000000000       0.0000000000
     -2.0699820106       3.5853140132       0.0000000000
      0.0000000000       0.0000000000       6.7706418950
PRIMCOORD 1
2 1
18       2.0699820106       1.1951046711       1.6926604737
18      -0.0000000000       2.3902093421       5.0779814212

