CRYSTAL
PRIMVEC 1
     -2.3052939807       2.3052939807       3.4901996274
      2.3052939807      -2.3052939807       3.4901996274
      2.3052939807       2.3052939807      -3.4901996274
PRIMCOORD 1
6 1
4       2.3052939807       0.0000000000       1.7450998137
16       0.0000000000       0.0000000000       0.0000000000
8       1.7183440551       1.2253206799       2.6522119783
8       2.8922439063       3.3852672816       2.6522119783
8       1.0799733009       4.0236380358       0.8379876491
8       3.5306146605       0.5869499256       0.8379876491

