CRYSTAL
PRIMVEC 1
      3.0365440402       1.7531402216       0.0000000000
     -3.0365440402       1.7531402216       0.0000000000
     -0.0003291905       0.0000000000       7.4664016770
PRIMCOORD 1
3 1
22       0.0000000000       0.0000000000       0.0000000000
35       1.0121503164       1.7531402216       1.6870234677
35       2.0240645333       0.0000000000       5.7793782092

