CRYSTAL
PRIMVEC 1
      0.0000000000       3.0206705278       3.0206705278
      3.0206705278       0.0000000000       3.0206705278
      3.0206705278       3.0206705278       0.0000000000
PRIMCOORD 1
2 1
11       3.0206705278       0.0000000000       0.0000000000
35       3.0206705278       0.0000000000       3.0206705278

