CRYSTAL
PRIMVEC 1
      5.2958995544       0.0000000000       0.0000000000
      0.0000000000       3.7240926103       0.0000000000
     -0.0001530307       0.0000000000       6.4491217640
PRIMCOORD 1
10 1
12       4.7258672231       1.8620463052       1.3399922266
12       0.5698793006       1.8620463052       5.1091295375
12       3.2178989798       0.0000000000       4.5645846426
12       2.0778475439       0.0000000000       1.8845371215
6       2.6479497772       1.8620463052       0.0000000000
6      -0.0000765153       0.0000000000       3.2245608820
6       3.7422230060       1.8620463052       5.6920640836
6       1.5535235177       1.8620463052       0.7570576804
6       4.2015223350       0.0000000000       2.4672567828
6       1.0942241887       0.0000000000       3.9818649812

