CRYSTAL
PRIMVEC 1
      0.0000000000       2.4145460179       2.4145460179
      2.4145460179       0.0000000000       2.4145460179
      2.4145460179       2.4145460179       0.0000000000
PRIMCOORD 1
2 1
20       0.0000000000       0.0000000000       0.0000000000
8       2.4145460179       0.0000000000       0.0000000000

