CRYSTAL
PRIMVEC 1
      3.2598542173       0.0000000000       0.0000000000
      0.0000000000       4.0245296313       0.0000000000
      0.0000000000       0.0000000000       8.5213962886
PRIMCOORD 1
6 1
22       0.0000000000       2.0122648157       4.9559140778
22       1.6299271087       0.0000000000       3.5654822108
17       1.6299271087       2.0122648157       6.7533618416
17       0.0000000000       0.0000000000       1.7680344471
8       1.6299271087       2.0122648157       3.6725735528
8       0.0000000000       0.0000000000       4.8488227357

