CRYSTAL
PRIMVEC 1
      2.5757438007       0.0000000000       0.0000000000
      0.0000000000       5.0483403470       0.0000000000
     -2.5715143521       0.0000000000       5.0453530657
PRIMCOORD 1
6 1
24       0.0000000000       2.5241701735       0.0000000000
24      -1.2857571760       0.0000000000       2.5226765328
9       0.0027726116       3.9549366337       1.4177329278
9      -1.2829845644       3.6175738868       3.9404094606
9       0.0014568370       1.0934037133       3.6276201379
9       1.2872140130       1.4307664602       1.1049436050

