CRYSTAL
PRIMVEC 1
      0.0000000000       3.2005628444       3.2005628444
      3.2005628444       0.0000000000       3.2005628444
      3.2005628444       3.2005628444       0.0000000000
PRIMCOORD 1
2 1
55       3.2005628444       0.0000000000       0.0000000000
1       0.0000000000       0.0000000000       0.0000000000

