CRYSTAL
PRIMVEC 1
      4.6454760872       0.0000000000       0.0000000000
      0.0000000000       4.6454760872       0.0000000000
      0.0000000000       0.0000000000       3.1143872997
PRIMCOORD 1
6 1
28       0.0000000000       0.0000000000       1.5571936498
28       2.3227380436       2.3227380436       0.0000000000
9       3.2406754676       1.4048006196       1.5571936498
9       1.4048006196       3.2406754676       1.5571936498
9       3.7275386632       3.7275386632       0.0000000000
9       0.9179374240       0.9179374240       0.0000000000

