CRYSTAL
PRIMVEC 1
      0.0000000000       2.3572456248       2.3572456248
      2.3572456248       0.0000000000       2.3572456248
      2.3572456248       2.3572456248       0.0000000000
PRIMCOORD 1
2 1
11       0.0000000000       0.0000000000       0.0000000000
9       2.3572456248       0.0000000000       0.0000000000

