CRYSTAL
PRIMVEC 1
      0.0000000000       2.8268500000       2.8268500000
      2.8268500000       0.0000000000       2.8268500000
      2.8268500000       2.8268500000       0.0000000000
PRIMCOORD 1
2 1
31       0.0000000000       0.0000000000       0.0000000000
33       1.4134250000       4.2402750000       4.2402750000
