CRYSTAL
PRIMVEC 1
      4.0638433362       0.0000000000       0.0000000000
      0.0000000000       4.0638433362       0.0000000000
      0.0000000000       0.0000000000       5.5532741971
PRIMCOORD 1
4 1
8       0.0000000000       0.0000000000       0.0000000000
8       2.0319216681       2.0319216681       0.0000000000
82       2.0319216681       0.0000000000       1.1926983831
82       0.0000000000       2.0319216681       4.3605758140

