CRYSTAL
PRIMVEC 1
      3.0873909564       0.0000000000       0.0000000000
      0.0000000000       3.0873909564       0.0000000000
      0.0000000000       0.0000000000       5.4271658893
PRIMCOORD 1
4 1
8       0.0000000000       0.0000000000       1.3567914723
8       0.0000000000       0.0000000000       4.0703744170
46       1.5436954782       0.0000000000       0.0000000000
46       0.0000000000       1.5436954782       2.7135829447

