CRYSTAL
PRIMVEC 1
      4.0740047976       0.0000000000       0.0000000000
      0.0000000000       4.0716852295       0.0000000000
     -0.0027146992       0.0000000000       5.7683814901
PRIMCOORD 1
4 1
37       1.0194544317       3.0537639221       1.4416918348
37       3.0518356667       1.0179213074       4.3266896553
8       1.0144688752       3.0537639221       4.3254773533
8       3.0568212232       1.0179213074       1.4429041368

