CRYSTAL
PRIMVEC 1
     -1.7828864010       1.7828864010       3.3905324933
      1.7828864010      -1.7828864010       3.3905324933
      1.7828864010       1.7828864010      -3.3905324933
PRIMCOORD 1
3 1
38       1.7828864010       1.7828864010       3.3905324933
8      -0.0000000000       0.0000000000       4.1423809976
8       1.7828864010       1.7828864010       6.0292164823

