CRYSTAL
PRIMVEC 1
      3.5789514777       0.0000000000       0.0000000000
     -1.7894757389       3.0994628986       0.0000000000
      0.0000000000       0.0000000000       6.1491600670
PRIMCOORD 1
3 1
78       0.0000000000       0.0000000000       0.0000000000
16       1.7894757389       1.0331542995       4.9264863460
16       0.0000000000       2.0663085991       1.2226737210

